OPT_V8/Brussels_test_1203-1157/powerflow_results_t8.txt
Pandapower Network Debug Info
==================================================

BUS:
       vm_pu  va_degree          p_mw    q_mvar
0   0.996628   0.247438 -2.668751e-05  0.000910
1   0.994512   0.403185 -6.748959e-06  0.001819
2   0.992569   0.546484  1.150566e-08  0.002729
3   0.994720   0.387862  0.000000e+00  0.003639
4   0.996592   0.487227 -1.653645e-03  0.004549
5   0.996039   0.291079 -1.087372e-05  0.005458
6   0.995419   0.336849  0.000000e+00  0.000910
7   0.998953   0.077081 -3.154613e-06  0.001819
8   0.998929   0.078392  1.635782e-03  0.002729
9   0.999955   0.003311 -2.968177e-07  0.009097
10  0.999950   0.003672 -5.302233e-08  0.008188
11  0.999946   0.003952 -1.150566e-08  0.010007
12  0.999910   0.006573 -2.045059e-08  0.005458
13  0.999900   0.007344  6.606733e-05  0.009097
14  0.999903   0.007091 -3.689566e-07  0.010917
15  0.999971   0.002102  0.000000e+00  0.000000
16  0.999971   0.002108  0.000000e+00  0.000000
17  0.999912   0.006465  0.000000e+00  0.000000
18  0.999912   0.006474  0.000000e+00  0.000000
19  1.000000   0.000000 -5.566556e-05 -0.041444
20  1.000000   0.000006  0.000000e+00  0.000000
21  1.000000   0.000000 -1.313736e-04 -0.045999
22  1.000000   0.000006  0.000000e+00  0.000000
--------------------------------------------------

LINE:
       p_from_mw  q_from_mvar       p_to_mw  q_to_mvar         pl_mw       ql_mvar  i_from_ka   i_to_ka      i_ka  vm_from_pu  va_from_degree  vm_to_pu  va_to_degree  loading_percent
0   4.566172e-05     0.037444 -4.429034e-05  -0.037443  1.371386e-06  1.069292e-06   0.001441  0.001441  0.001441    1.000000        0.000006  0.999971      0.002102         0.626615
1   1.213688e-04     0.041999 -1.166241e-04  -0.041995  4.744693e-06  3.699515e-06   0.001617  0.001617  0.001617    1.000000        0.000006  0.999912      0.006465         0.702844
2   3.781893e-07     0.027293  1.978649e-07  -0.027292  5.760542e-07  4.491589e-07   0.001051  0.001051  0.001051    0.999971        0.002102  0.999955      0.003311         0.456755
3  -1.014461e-08     0.005458  2.045021e-08  -0.005458  1.030560e-08  8.035444e-09   0.000210  0.000210  0.000210    0.999912        0.006465  0.999910      0.006573         0.091355
4   6.595794e-05     0.020015 -6.573886e-05  -0.020014  2.190778e-07  1.708185e-07   0.000770  0.000770  0.000770    0.999912        0.006465  0.999903      0.007091         0.334972
5   3.391258e-05     0.009150  5.248551e-06  -0.009119  3.916113e-05  3.053458e-05   0.013207  0.013207  0.013207    0.999971        0.002108  0.996628      0.247438         5.742300
6   2.157207e-05     0.006394  1.014701e-05  -0.006369  3.171907e-05  2.473188e-05   0.009229  0.009229  0.009229    0.999912        0.006474  0.996039      0.291079         4.012657
7  -9.132913e-07     0.001821  3.154615e-06  -0.001819  2.241324e-06  1.747597e-06   0.002629  0.002629  0.002629    0.999912        0.006474  0.998953      0.077081         1.143028
8   2.001730e-05     0.007307 -1.083423e-05  -0.007300  9.183073e-06  7.160193e-06   0.010548  0.010548  0.010548    0.999912        0.006474  0.998929      0.078392         4.586277
9   1.554526e-08    -0.018195  9.895273e-08   0.018195  1.144980e-07  8.927596e-08   0.000700  0.000700  0.000700    0.999950        0.003672  0.999955      0.003311         0.304504
10  1.150582e-08    -0.010007  3.747654e-08   0.010007  4.898236e-08  3.819235e-08   0.000385  0.000385  0.000385    0.999946        0.003952  0.999950      0.003672         0.167477
11  6.610781e-05     0.009097 -6.606733e-05  -0.009097  4.048721e-08  3.156854e-08   0.000350  0.000350  0.000350    0.999903        0.007091  0.999900      0.007344         0.152263
12 -1.012768e-07    -0.004554  1.250703e-05   0.004564  1.240575e-05  9.672971e-06   0.006609  0.006609  0.006609    0.994512        0.403185  0.996628      0.247438         2.873690
13 -6.039601e-10    -0.003639  8.936300e-06   0.003646  8.935696e-06  6.967309e-06   0.005280  0.005280  0.005280    0.994720        0.387862  0.996628      0.247438         2.295779
14 -1.265709e-08    -0.002729  6.851977e-06   0.002735  6.839320e-06  5.332731e-06   0.003969  0.003969  0.003969    0.992569        0.546484  0.994512      0.403185         1.725564
15 -1.624947e-03     0.004571  1.653645e-03  -0.004549  2.869825e-05  2.237650e-05   0.007010  0.007010  0.007010    0.998929        0.078392  0.996592      0.487227         3.047739
16 -1.406437e-10    -0.000910  7.273466e-07   0.000910  7.272059e-07  5.670144e-07   0.001319  0.001319  0.001319    0.995419        0.336849  0.996039      0.291079         0.573542
--------------------------------------------------

TRAFO:
    p_hv_mw  q_hv_mvar   p_lv_mw  q_lv_mvar    pl_mw  ql_mvar   i_hv_ka   i_lv_ka  vm_hv_pu  va_hv_degree  vm_lv_pu  va_lv_degree  loading_percent
0  0.000044   0.010150 -0.000034  -0.009150  0.00001    0.001  0.000391  0.013207  0.999971      0.002102  0.999971      0.002108         0.101502
1  0.000051   0.016522 -0.000041  -0.015522  0.00001    0.001  0.000636  0.022406  0.999912      0.006465  0.999912      0.006474         0.165236
2  0.000056   0.041444 -0.000046  -0.037444  0.00001    0.004  0.000342  0.001441  1.000000      0.000000  1.000000      0.000006         0.103610
3  0.000131   0.045999 -0.000121  -0.041999  0.00001    0.004  0.000379  0.001617  1.000000      0.000000  1.000000      0.000006         0.114997
--------------------------------------------------
